[General]
network = CAN
record-eventlog = true 
sim-time-limit = 2s
