[General]
network = homecan
record-eventlog = true 
sim-time-limit = 2s
