[General]
network = newlin
record-eventlog = true
sim-time-limit = 1s
